Version 4
SHEET 1 940 1016
WIRE -144 176 -144 144
WIRE -496 192 -496 144
WIRE -144 288 -144 256
WIRE -16 288 -144 288
WIRE 256 288 -16 288
WIRE -496 304 -496 272
WIRE -16 384 -16 288
WIRE 256 384 256 288
WIRE -64 400 -144 400
WIRE 384 400 304 400
WIRE -496 480 -496 432
WIRE -496 592 -496 560
WIRE -16 592 -16 480
WIRE 80 592 -16 592
WIRE 256 592 256 480
WIRE 256 592 160 592
WIRE -16 720 -16 592
WIRE 256 720 256 592
WIRE -64 800 -144 800
WIRE 416 800 304 800
WIRE -16 944 -16 816
WIRE -16 944 -112 944
WIRE 256 944 256 816
WIRE 256 944 -16 944
WIRE -112 976 -112 944
FLAG -112 976 0
FLAG -144 144 0
FLAG -496 144 0
FLAG -496 304 VGS1
FLAG -144 800 VGS2
FLAG -144 400 VGS1
FLAG 416 800 VGS1
FLAG 384 400 VGS2
FLAG -496 432 0
FLAG -496 592 VGS2
SYMBOL voltage -144 272 R180
WINDOW 0 24 96 Left 2
WINDOW 3 24 124 Left 2
WINDOW 123 0 0 Left 0
WINDOW 39 0 0 Left 0
SYMATTR InstName V1
SYMATTR Value 5
SYMBOL AutoGenerated\\AO3400 -64 720 R0
SYMATTR InstName U1
SYMBOL AutoGenerated\\AO3401 -64 480 M180
SYMATTR InstName U2
SYMBOL ind 176 576 R90
WINDOW 0 5 56 VBottom 2
WINDOW 3 32 56 VTop 2
SYMATTR InstName L2
SYMATTR Value 1p
SYMBOL voltage -496 288 R180
WINDOW 0 24 96 Left 2
WINDOW 3 24 124 Left 2
WINDOW 123 0 0 Left 0
WINDOW 39 0 0 Left 0
SYMATTR InstName V3
SYMATTR Value PWL(0 0 9m 0 10m 5 15m 5 16m 0)
SYMBOL AutoGenerated\\AO3400 304 720 M0
SYMATTR InstName U3
SYMBOL AutoGenerated\\AO3401 304 480 R180
SYMATTR InstName U4
SYMBOL voltage -496 576 R180
WINDOW 0 24 96 Left 2
WINDOW 3 24 124 Left 2
WINDOW 123 0 0 Left 0
WINDOW 39 0 0 Left 0
SYMATTR InstName V4
SYMATTR Value PWL(0 0 19m 0 20m 5 30m 5 31m 0)
TEXT 488 72 Left 2 ;P-Channel
TEXT 488 -80 Left 2 ;N-Channel
TEXT 496 32 Left 2 ;Custom
TEXT 496 -112 Left 2 ;Custom
TEXT -1014 1000 Left 2 !.tran 100m uic
